
---------- Begin Simulation Statistics ----------
simSeconds                                   1.054653                       # Number of seconds simulated (Second)
simTicks                                 1054653499500                       # Number of ticks simulated (Tick)
finalTick                                1054653499500                       # Number of ticks from beginning of simulation (restored from checkpoints and never reset) (Tick)
simFreq                                  1000000000000                       # The number of ticks per simulated second ((Tick/Second))
hostSeconds                                    533.41                       # Real time elapsed on the host (Second)
hostTickRate                               1977174955                       # The number of ticks simulated per host second (ticks/s) ((Tick/Second))
hostMemory                                  405012272                       # Number of bytes of host memory used (Byte)
simInsts                                    500000000                       # Number of instructions simulated (Count)
simOps                                      730450381                       # Number of ops (including micro ops) simulated (Count)
hostInstRate                                   937358                       # Simulator instruction rate (inst/s) ((Count/Second))
hostOpRate                                    1369386                       # Simulator op (including micro ops) rate (op/s) ((Count/Second))
system.clk_domain.clock                          1000                       # Clock period in ticks (Tick)
system.cpu.numCycles                       2109306999                       # Number of cpu cycles simulated (Cycle)
system.cpu.numWorkItemsStarted                      0                       # Number of work items this cpu started (Count)
system.cpu.numWorkItemsCompleted                    0                       # Number of work items this cpu completed (Count)
system.cpu.branchPred.lookups                37843275                       # Number of BP lookups (Count)
system.cpu.branchPred.condPredicted          31770454                       # Number of conditional branches predicted (Count)
system.cpu.branchPred.condIncorrect           3829355                       # Number of conditional branches incorrect (Count)
system.cpu.branchPred.BTBLookups             31467749                       # Number of BTB lookups (Count)
system.cpu.branchPred.BTBHits                31467297                       # Number of BTB hits (Count)
system.cpu.branchPred.BTBHitRatio            0.999986                       # BTB Hit Ratio (Ratio)
system.cpu.branchPred.RASUsed                  726980                       # Number of times the RAS was used to get a target. (Count)
system.cpu.branchPred.RASIncorrect                  0                       # Number of incorrect RAS predictions. (Count)
system.cpu.branchPred.indirectLookups              74                       # Number of indirect predictor lookups. (Count)
system.cpu.branchPred.indirectHits                 15                       # Number of indirect target hits. (Count)
system.cpu.branchPred.indirectMisses               59                       # Number of indirect misses. (Count)
system.cpu.branchPred.indirectMispredicted           61                       # Number of mispredicted indirect branches. (Count)
system.cpu.dcache.demandHits::cpu.data      293968584                       # number of demand (read+write) hits (Count)
system.cpu.dcache.demandHits::total         293968584                       # number of demand (read+write) hits (Count)
system.cpu.dcache.overallHits::cpu.data     293968584                       # number of overall hits (Count)
system.cpu.dcache.overallHits::total        293968584                       # number of overall hits (Count)
system.cpu.dcache.demandMisses::cpu.data      2000562                       # number of demand (read+write) misses (Count)
system.cpu.dcache.demandMisses::total         2000562                       # number of demand (read+write) misses (Count)
system.cpu.dcache.overallMisses::cpu.data      2016946                       # number of overall misses (Count)
system.cpu.dcache.overallMisses::total        2016946                       # number of overall misses (Count)
system.cpu.dcache.demandMissLatency::cpu.data  72722754000                       # number of demand (read+write) miss ticks (Tick)
system.cpu.dcache.demandMissLatency::total  72722754000                       # number of demand (read+write) miss ticks (Tick)
system.cpu.dcache.overallMissLatency::cpu.data  72722754000                       # number of overall miss ticks (Tick)
system.cpu.dcache.overallMissLatency::total  72722754000                       # number of overall miss ticks (Tick)
system.cpu.dcache.demandAccesses::cpu.data    295969146                       # number of demand (read+write) accesses (Count)
system.cpu.dcache.demandAccesses::total     295969146                       # number of demand (read+write) accesses (Count)
system.cpu.dcache.overallAccesses::cpu.data    295985530                       # number of overall (read+write) accesses (Count)
system.cpu.dcache.overallAccesses::total    295985530                       # number of overall (read+write) accesses (Count)
system.cpu.dcache.demandMissRate::cpu.data     0.006759                       # miss rate for demand accesses (Ratio)
system.cpu.dcache.demandMissRate::total      0.006759                       # miss rate for demand accesses (Ratio)
system.cpu.dcache.overallMissRate::cpu.data     0.006814                       # miss rate for overall accesses (Ratio)
system.cpu.dcache.overallMissRate::total     0.006814                       # miss rate for overall accesses (Ratio)
system.cpu.dcache.demandAvgMissLatency::cpu.data 36351.162323                       # average overall miss latency in ticks ((Tick/Count))
system.cpu.dcache.demandAvgMissLatency::total 36351.162323                       # average overall miss latency in ticks ((Tick/Count))
system.cpu.dcache.overallAvgMissLatency::cpu.data 36055.875566                       # average overall miss latency ((Tick/Count))
system.cpu.dcache.overallAvgMissLatency::total 36055.875566                       # average overall miss latency ((Tick/Count))
system.cpu.dcache.blockedCycles::no_mshrs       248051                       # number of cycles access was blocked (Cycle)
system.cpu.dcache.blockedCycles::no_targets            0                       # number of cycles access was blocked (Cycle)
system.cpu.dcache.blockedCauses::no_mshrs         5236                       # number of times access was blocked (Count)
system.cpu.dcache.blockedCauses::no_targets            0                       # number of times access was blocked (Count)
system.cpu.dcache.avgBlocked::no_mshrs      47.374141                       # average number of cycles each access was blocked ((Cycle/Count))
system.cpu.dcache.avgBlocked::no_targets          nan                       # average number of cycles each access was blocked ((Cycle/Count))
system.cpu.dcache.writebacks::writebacks       930127                       # number of writebacks (Count)
system.cpu.dcache.writebacks::total            930127                       # number of writebacks (Count)
system.cpu.dcache.demandMshrMisses::cpu.data      2000562                       # number of demand (read+write) MSHR misses (Count)
system.cpu.dcache.demandMshrMisses::total      2000562                       # number of demand (read+write) MSHR misses (Count)
system.cpu.dcache.overallMshrMisses::cpu.data      2016946                       # number of overall MSHR misses (Count)
system.cpu.dcache.overallMshrMisses::total      2016946                       # number of overall MSHR misses (Count)
system.cpu.dcache.demandMshrMissLatency::cpu.data  70722192000                       # number of demand (read+write) MSHR miss ticks (Tick)
system.cpu.dcache.demandMshrMissLatency::total  70722192000                       # number of demand (read+write) MSHR miss ticks (Tick)
system.cpu.dcache.overallMshrMissLatency::cpu.data  72029835477                       # number of overall MSHR miss ticks (Tick)
system.cpu.dcache.overallMshrMissLatency::total  72029835477                       # number of overall MSHR miss ticks (Tick)
system.cpu.dcache.demandMshrMissRate::cpu.data     0.006759                       # mshr miss ratio for demand accesses (Ratio)
system.cpu.dcache.demandMshrMissRate::total     0.006759                       # mshr miss ratio for demand accesses (Ratio)
system.cpu.dcache.overallMshrMissRate::cpu.data     0.006814                       # mshr miss ratio for overall accesses (Ratio)
system.cpu.dcache.overallMshrMissRate::total     0.006814                       # mshr miss ratio for overall accesses (Ratio)
system.cpu.dcache.demandAvgMshrMissLatency::cpu.data 35351.162323                       # average overall mshr miss latency ((Tick/Count))
system.cpu.dcache.demandAvgMshrMissLatency::total 35351.162323                       # average overall mshr miss latency ((Tick/Count))
system.cpu.dcache.overallAvgMshrMissLatency::cpu.data 35712.327190                       # average overall mshr miss latency ((Tick/Count))
system.cpu.dcache.overallAvgMshrMissLatency::total 35712.327190                       # average overall mshr miss latency ((Tick/Count))
system.cpu.dcache.replacements                2014898                       # number of replacements (Count)
system.cpu.dcache.LockedRMWReadReq.hits::cpu.data           24                       # number of LockedRMWReadReq hits (Count)
system.cpu.dcache.LockedRMWReadReq.hits::total           24                       # number of LockedRMWReadReq hits (Count)
system.cpu.dcache.LockedRMWReadReq.accesses::cpu.data           24                       # number of LockedRMWReadReq accesses(hits+misses) (Count)
system.cpu.dcache.LockedRMWReadReq.accesses::total           24                       # number of LockedRMWReadReq accesses(hits+misses) (Count)
system.cpu.dcache.LockedRMWReadReq.mshrMissLatency::cpu.data        24000                       # number of LockedRMWReadReq MSHR miss ticks (Tick)
system.cpu.dcache.LockedRMWReadReq.mshrMissLatency::total        24000                       # number of LockedRMWReadReq MSHR miss ticks (Tick)
system.cpu.dcache.LockedRMWReadReq.avgMshrMissLatency::cpu.data          inf                       # average LockedRMWReadReq mshr miss latency ((Tick/Count))
system.cpu.dcache.LockedRMWReadReq.avgMshrMissLatency::total          inf                       # average LockedRMWReadReq mshr miss latency ((Tick/Count))
system.cpu.dcache.LockedRMWWriteReq.hits::cpu.data           24                       # number of LockedRMWWriteReq hits (Count)
system.cpu.dcache.LockedRMWWriteReq.hits::total           24                       # number of LockedRMWWriteReq hits (Count)
system.cpu.dcache.LockedRMWWriteReq.accesses::cpu.data           24                       # number of LockedRMWWriteReq accesses(hits+misses) (Count)
system.cpu.dcache.LockedRMWWriteReq.accesses::total           24                       # number of LockedRMWWriteReq accesses(hits+misses) (Count)
system.cpu.dcache.ReadReq.hits::cpu.data    224518098                       # number of ReadReq hits (Count)
system.cpu.dcache.ReadReq.hits::total       224518098                       # number of ReadReq hits (Count)
system.cpu.dcache.ReadReq.misses::cpu.data      1412345                       # number of ReadReq misses (Count)
system.cpu.dcache.ReadReq.misses::total       1412345                       # number of ReadReq misses (Count)
system.cpu.dcache.ReadReq.missLatency::cpu.data  40776249500                       # number of ReadReq miss ticks (Tick)
system.cpu.dcache.ReadReq.missLatency::total  40776249500                       # number of ReadReq miss ticks (Tick)
system.cpu.dcache.ReadReq.accesses::cpu.data    225930443                       # number of ReadReq accesses(hits+misses) (Count)
system.cpu.dcache.ReadReq.accesses::total    225930443                       # number of ReadReq accesses(hits+misses) (Count)
system.cpu.dcache.ReadReq.missRate::cpu.data     0.006251                       # miss rate for ReadReq accesses (Ratio)
system.cpu.dcache.ReadReq.missRate::total     0.006251                       # miss rate for ReadReq accesses (Ratio)
system.cpu.dcache.ReadReq.avgMissLatency::cpu.data 28871.309418                       # average ReadReq miss latency ((Tick/Count))
system.cpu.dcache.ReadReq.avgMissLatency::total 28871.309418                       # average ReadReq miss latency ((Tick/Count))
system.cpu.dcache.ReadReq.mshrMisses::cpu.data      1412345                       # number of ReadReq MSHR misses (Count)
system.cpu.dcache.ReadReq.mshrMisses::total      1412345                       # number of ReadReq MSHR misses (Count)
system.cpu.dcache.ReadReq.mshrMissLatency::cpu.data  39363904500                       # number of ReadReq MSHR miss ticks (Tick)
system.cpu.dcache.ReadReq.mshrMissLatency::total  39363904500                       # number of ReadReq MSHR miss ticks (Tick)
system.cpu.dcache.ReadReq.mshrMissRate::cpu.data     0.006251                       # mshr miss rate for ReadReq accesses (Ratio)
system.cpu.dcache.ReadReq.mshrMissRate::total     0.006251                       # mshr miss rate for ReadReq accesses (Ratio)
system.cpu.dcache.ReadReq.avgMshrMissLatency::cpu.data 27871.309418                       # average ReadReq mshr miss latency ((Tick/Count))
system.cpu.dcache.ReadReq.avgMshrMissLatency::total 27871.309418                       # average ReadReq mshr miss latency ((Tick/Count))
system.cpu.dcache.SoftPFReq.misses::cpu.data        16384                       # number of SoftPFReq misses (Count)
system.cpu.dcache.SoftPFReq.misses::total        16384                       # number of SoftPFReq misses (Count)
system.cpu.dcache.SoftPFReq.accesses::cpu.data        16384                       # number of SoftPFReq accesses(hits+misses) (Count)
system.cpu.dcache.SoftPFReq.accesses::total        16384                       # number of SoftPFReq accesses(hits+misses) (Count)
system.cpu.dcache.SoftPFReq.missRate::cpu.data            1                       # miss rate for SoftPFReq accesses (Ratio)
system.cpu.dcache.SoftPFReq.missRate::total            1                       # miss rate for SoftPFReq accesses (Ratio)
system.cpu.dcache.SoftPFReq.mshrMisses::cpu.data        16384                       # number of SoftPFReq MSHR misses (Count)
system.cpu.dcache.SoftPFReq.mshrMisses::total        16384                       # number of SoftPFReq MSHR misses (Count)
system.cpu.dcache.SoftPFReq.mshrMissLatency::cpu.data   1307643477                       # number of SoftPFReq MSHR miss ticks (Tick)
system.cpu.dcache.SoftPFReq.mshrMissLatency::total   1307643477                       # number of SoftPFReq MSHR miss ticks (Tick)
system.cpu.dcache.SoftPFReq.mshrMissRate::cpu.data            1                       # mshr miss rate for SoftPFReq accesses (Ratio)
system.cpu.dcache.SoftPFReq.mshrMissRate::total            1                       # mshr miss rate for SoftPFReq accesses (Ratio)
system.cpu.dcache.SoftPFReq.avgMshrMissLatency::cpu.data 79812.223938                       # average SoftPFReq mshr miss latency ((Tick/Count))
system.cpu.dcache.SoftPFReq.avgMshrMissLatency::total 79812.223938                       # average SoftPFReq mshr miss latency ((Tick/Count))
system.cpu.dcache.WriteReq.hits::cpu.data     69450486                       # number of WriteReq hits (Count)
system.cpu.dcache.WriteReq.hits::total       69450486                       # number of WriteReq hits (Count)
system.cpu.dcache.WriteReq.misses::cpu.data       588217                       # number of WriteReq misses (Count)
system.cpu.dcache.WriteReq.misses::total       588217                       # number of WriteReq misses (Count)
system.cpu.dcache.WriteReq.missLatency::cpu.data  31946504500                       # number of WriteReq miss ticks (Tick)
system.cpu.dcache.WriteReq.missLatency::total  31946504500                       # number of WriteReq miss ticks (Tick)
system.cpu.dcache.WriteReq.accesses::cpu.data     70038703                       # number of WriteReq accesses(hits+misses) (Count)
system.cpu.dcache.WriteReq.accesses::total     70038703                       # number of WriteReq accesses(hits+misses) (Count)
system.cpu.dcache.WriteReq.missRate::cpu.data     0.008398                       # miss rate for WriteReq accesses (Ratio)
system.cpu.dcache.WriteReq.missRate::total     0.008398                       # miss rate for WriteReq accesses (Ratio)
system.cpu.dcache.WriteReq.avgMissLatency::cpu.data 54310.746714                       # average WriteReq miss latency ((Tick/Count))
system.cpu.dcache.WriteReq.avgMissLatency::total 54310.746714                       # average WriteReq miss latency ((Tick/Count))
system.cpu.dcache.WriteReq.mshrMisses::cpu.data       588217                       # number of WriteReq MSHR misses (Count)
system.cpu.dcache.WriteReq.mshrMisses::total       588217                       # number of WriteReq MSHR misses (Count)
system.cpu.dcache.WriteReq.mshrMissLatency::cpu.data  31358287500                       # number of WriteReq MSHR miss ticks (Tick)
system.cpu.dcache.WriteReq.mshrMissLatency::total  31358287500                       # number of WriteReq MSHR miss ticks (Tick)
system.cpu.dcache.WriteReq.mshrMissRate::cpu.data     0.008398                       # mshr miss rate for WriteReq accesses (Ratio)
system.cpu.dcache.WriteReq.mshrMissRate::total     0.008398                       # mshr miss rate for WriteReq accesses (Ratio)
system.cpu.dcache.WriteReq.avgMshrMissLatency::cpu.data 53310.746714                       # average WriteReq mshr miss latency ((Tick/Count))
system.cpu.dcache.WriteReq.avgMshrMissLatency::total 53310.746714                       # average WriteReq mshr miss latency ((Tick/Count))
system.cpu.dcache.power_state.pwrStateResidencyTicks::UNDEFINED 1054653499500                       # Cumulative time (in ticks) in various power states (Tick)
system.cpu.dcache.tags.tagsInUse          2042.055237                       # Average ticks per tags in use ((Tick/Count))
system.cpu.dcache.tags.totalRefs            295985578                       # Total number of references to valid blocks. (Count)
system.cpu.dcache.tags.sampledRefs            2016946                       # Sample count of references to valid blocks. (Count)
system.cpu.dcache.tags.avgRefs             146.749381                       # Average number of references to valid blocks. ((Count/Count))
system.cpu.dcache.tags.warmupTick              189500                       # The tick when the warmup percentage was hit. (Tick)
system.cpu.dcache.tags.occupancies::cpu.data  2042.055237                       # Average occupied blocks per tick, per requestor ((Count/Tick))
system.cpu.dcache.tags.avgOccs::cpu.data     0.997097                       # Average percentage of cache occupancy ((Ratio/Tick))
system.cpu.dcache.tags.avgOccs::total        0.997097                       # Average percentage of cache occupancy ((Ratio/Tick))
system.cpu.dcache.tags.occupanciesTaskId::1024         2048                       # Occupied blocks per task id (Count)
system.cpu.dcache.tags.ageTaskId_1024::1            2                       # Occupied blocks per task id, per block age (Count)
system.cpu.dcache.tags.ageTaskId_1024::2           16                       # Occupied blocks per task id, per block age (Count)
system.cpu.dcache.tags.ageTaskId_1024::3         1349                       # Occupied blocks per task id, per block age (Count)
system.cpu.dcache.tags.ageTaskId_1024::4          681                       # Occupied blocks per task id, per block age (Count)
system.cpu.dcache.tags.ratioOccsTaskId::1024            1                       # Ratio of occupied blocks and all blocks, per task id (Ratio)
system.cpu.dcache.tags.tagAccesses          593988102                       # Number of tag accesses (Count)
system.cpu.dcache.tags.dataAccesses         593988102                       # Number of data accesses (Count)
system.cpu.dcache.tags.power_state.pwrStateResidencyTicks::UNDEFINED 1054653499500                       # Cumulative time (in ticks) in various power states (Tick)
system.cpu.dtb_walker_cache.blockedCycles::no_mshrs            0                       # number of cycles access was blocked (Cycle)
system.cpu.dtb_walker_cache.blockedCycles::no_targets            0                       # number of cycles access was blocked (Cycle)
system.cpu.dtb_walker_cache.blockedCauses::no_mshrs            0                       # number of times access was blocked (Count)
system.cpu.dtb_walker_cache.blockedCauses::no_targets            0                       # number of times access was blocked (Count)
system.cpu.dtb_walker_cache.avgBlocked::no_mshrs          nan                       # average number of cycles each access was blocked ((Cycle/Count))
system.cpu.dtb_walker_cache.avgBlocked::no_targets          nan                       # average number of cycles each access was blocked ((Cycle/Count))
system.cpu.dtb_walker_cache.replacements            0                       # number of replacements (Count)
system.cpu.dtb_walker_cache.power_state.pwrStateResidencyTicks::UNDEFINED 1054653499500                       # Cumulative time (in ticks) in various power states (Tick)
system.cpu.dtb_walker_cache.tags.tagsInUse            0                       # Average ticks per tags in use ((Tick/Count))
system.cpu.dtb_walker_cache.tags.totalRefs            0                       # Total number of references to valid blocks. (Count)
system.cpu.dtb_walker_cache.tags.sampledRefs            0                       # Sample count of references to valid blocks. (Count)
system.cpu.dtb_walker_cache.tags.avgRefs          nan                       # Average number of references to valid blocks. ((Count/Count))
system.cpu.dtb_walker_cache.tags.warmupTick            0                       # The tick when the warmup percentage was hit. (Tick)
system.cpu.dtb_walker_cache.tags.tagAccesses            0                       # Number of tag accesses (Count)
system.cpu.dtb_walker_cache.tags.dataAccesses            0                       # Number of data accesses (Count)
system.cpu.dtb_walker_cache.tags.power_state.pwrStateResidencyTicks::UNDEFINED 1054653499500                       # Cumulative time (in ticks) in various power states (Tick)
system.cpu.exec_context.thread_0.numInsts    500000000                       # Number of instructions committed (Count)
system.cpu.exec_context.thread_0.numOps     730450381                       # Number of ops (including micro ops) committed (Count)
system.cpu.exec_context.thread_0.numIntAluAccesses    729697463                       # Number of integer alu accesses (Count)
system.cpu.exec_context.thread_0.numFpAluAccesses          663                       # Number of float alu accesses (Count)
system.cpu.exec_context.thread_0.numVecAluAccesses            0                       # Number of vector alu accesses (Count)
system.cpu.exec_context.thread_0.numCallsReturns      1453969                       # Number of times a function call or return occured (Count)
system.cpu.exec_context.thread_0.numCondCtrlInsts     31770454                       # Number of instructions that are conditional controls (Count)
system.cpu.exec_context.thread_0.numIntInsts    729697463                       # Number of integer instructions (Count)
system.cpu.exec_context.thread_0.numFpInsts          663                       # Number of float instructions (Count)
system.cpu.exec_context.thread_0.numVecInsts            0                       # Number of vector instructions (Count)
system.cpu.exec_context.thread_0.numIntRegReads   1015063592                       # Number of times the integer registers were read (Count)
system.cpu.exec_context.thread_0.numIntRegWrites    589517369                       # Number of times the integer registers were written (Count)
system.cpu.exec_context.thread_0.numFpRegReads         1039                       # Number of times the floating registers were read (Count)
system.cpu.exec_context.thread_0.numFpRegWrites          429                       # Number of times the floating registers were written (Count)
system.cpu.exec_context.thread_0.numVecRegReads            0                       # Number of times the vector registers were read (Count)
system.cpu.exec_context.thread_0.numVecRegWrites            0                       # Number of times the vector registers were written (Count)
system.cpu.exec_context.thread_0.numVecPredRegReads            0                       # Number of times the predicate registers were read (Count)
system.cpu.exec_context.thread_0.numVecPredRegWrites            0                       # Number of times the predicate registers were written (Count)
system.cpu.exec_context.thread_0.numCCRegReads    180840274                       # Number of times the CC registers were read (Count)
system.cpu.exec_context.thread_0.numCCRegWrites    276245149                       # Number of times the CC registers were written (Count)
system.cpu.exec_context.thread_0.numMiscRegReads    370834491                       # Number of times the Misc registers were read (Count)
system.cpu.exec_context.thread_0.numMiscRegWrites            0                       # Number of times the Misc registers were written (Count)
system.cpu.exec_context.thread_0.numMemRefs    295994191                       # Number of memory refs (Count)
system.cpu.exec_context.thread_0.numLoadInsts    225946844                       # Number of load instructions (Count)
system.cpu.exec_context.thread_0.numStoreInsts     70047347                       # Number of store instructions (Count)
system.cpu.exec_context.thread_0.numIdleCycles            0                       # Number of idle cycles (Cycle)
system.cpu.exec_context.thread_0.numBusyCycles   2109306999                       # Number of busy cycles (Cycle)
system.cpu.exec_context.thread_0.notIdleFraction            1                       # Percentage of non-idle cycles (Ratio)
system.cpu.exec_context.thread_0.idleFraction            0                       # Percentage of idle cycles (Ratio)
system.cpu.exec_context.thread_0.numBranches     37843275                       # Number of branches fetched (Count)
system.cpu.exec_context.thread_0.numPredictedBranches     32194292                       # Number of branches predicted as taken (Count)
system.cpu.exec_context.thread_0.numBranchMispred      3829355                       # Number of branch mispredictions (Count)
system.cpu.exec_context.thread_0.statExecutedInstType::No_OpClass       263730      0.04%      0.04% # Class of executed instruction. (Count)
system.cpu.exec_context.thread_0.statExecutedInstType::IntAlu    434414292     59.45%     59.49% # Class of executed instruction. (Count)
system.cpu.exec_context.thread_0.statExecutedInstType::IntMult        20662      0.00%     59.49% # Class of executed instruction. (Count)
system.cpu.exec_context.thread_0.statExecutedInstType::IntDiv          119      0.00%     59.49% # Class of executed instruction. (Count)
system.cpu.exec_context.thread_0.statExecutedInstType::FloatAdd           15      0.00%     59.49% # Class of executed instruction. (Count)
system.cpu.exec_context.thread_0.statExecutedInstType::FloatCmp            0      0.00%     59.49% # Class of executed instruction. (Count)
system.cpu.exec_context.thread_0.statExecutedInstType::FloatCvt            0      0.00%     59.49% # Class of executed instruction. (Count)
system.cpu.exec_context.thread_0.statExecutedInstType::FloatMult            0      0.00%     59.49% # Class of executed instruction. (Count)
system.cpu.exec_context.thread_0.statExecutedInstType::FloatMultAcc            0      0.00%     59.49% # Class of executed instruction. (Count)
system.cpu.exec_context.thread_0.statExecutedInstType::FloatDiv            0      0.00%     59.49% # Class of executed instruction. (Count)
system.cpu.exec_context.thread_0.statExecutedInstType::FloatMisc            0      0.00%     59.49% # Class of executed instruction. (Count)
system.cpu.exec_context.thread_0.statExecutedInstType::FloatSqrt            0      0.00%     59.49% # Class of executed instruction. (Count)
system.cpu.exec_context.thread_0.statExecutedInstType::SimdAdd            0      0.00%     59.49% # Class of executed instruction. (Count)
system.cpu.exec_context.thread_0.statExecutedInstType::SimdAddAcc            0      0.00%     59.49% # Class of executed instruction. (Count)
system.cpu.exec_context.thread_0.statExecutedInstType::SimdAlu          118      0.00%     59.49% # Class of executed instruction. (Count)
system.cpu.exec_context.thread_0.statExecutedInstType::SimdCmp            0      0.00%     59.49% # Class of executed instruction. (Count)
system.cpu.exec_context.thread_0.statExecutedInstType::SimdCvt           90      0.00%     59.49% # Class of executed instruction. (Count)
system.cpu.exec_context.thread_0.statExecutedInstType::SimdMisc          175      0.00%     59.49% # Class of executed instruction. (Count)
system.cpu.exec_context.thread_0.statExecutedInstType::SimdMult            0      0.00%     59.49% # Class of executed instruction. (Count)
system.cpu.exec_context.thread_0.statExecutedInstType::SimdMultAcc            0      0.00%     59.49% # Class of executed instruction. (Count)
system.cpu.exec_context.thread_0.statExecutedInstType::SimdShift            0      0.00%     59.49% # Class of executed instruction. (Count)
system.cpu.exec_context.thread_0.statExecutedInstType::SimdShiftAcc            0      0.00%     59.49% # Class of executed instruction. (Count)
system.cpu.exec_context.thread_0.statExecutedInstType::SimdDiv            0      0.00%     59.49% # Class of executed instruction. (Count)
system.cpu.exec_context.thread_0.statExecutedInstType::SimdSqrt            0      0.00%     59.49% # Class of executed instruction. (Count)
system.cpu.exec_context.thread_0.statExecutedInstType::SimdFloatAdd            0      0.00%     59.49% # Class of executed instruction. (Count)
system.cpu.exec_context.thread_0.statExecutedInstType::SimdFloatAlu            0      0.00%     59.49% # Class of executed instruction. (Count)
system.cpu.exec_context.thread_0.statExecutedInstType::SimdFloatCmp            0      0.00%     59.49% # Class of executed instruction. (Count)
system.cpu.exec_context.thread_0.statExecutedInstType::SimdFloatCvt            0      0.00%     59.49% # Class of executed instruction. (Count)
system.cpu.exec_context.thread_0.statExecutedInstType::SimdFloatDiv            0      0.00%     59.49% # Class of executed instruction. (Count)
system.cpu.exec_context.thread_0.statExecutedInstType::SimdFloatMisc            0      0.00%     59.49% # Class of executed instruction. (Count)
system.cpu.exec_context.thread_0.statExecutedInstType::SimdFloatMult            0      0.00%     59.49% # Class of executed instruction. (Count)
system.cpu.exec_context.thread_0.statExecutedInstType::SimdFloatMultAcc            0      0.00%     59.49% # Class of executed instruction. (Count)
system.cpu.exec_context.thread_0.statExecutedInstType::SimdFloatSqrt            0      0.00%     59.49% # Class of executed instruction. (Count)
system.cpu.exec_context.thread_0.statExecutedInstType::SimdReduceAdd            0      0.00%     59.49% # Class of executed instruction. (Count)
system.cpu.exec_context.thread_0.statExecutedInstType::SimdReduceAlu            0      0.00%     59.49% # Class of executed instruction. (Count)
system.cpu.exec_context.thread_0.statExecutedInstType::SimdReduceCmp            0      0.00%     59.49% # Class of executed instruction. (Count)
system.cpu.exec_context.thread_0.statExecutedInstType::SimdFloatReduceAdd            0      0.00%     59.49% # Class of executed instruction. (Count)
system.cpu.exec_context.thread_0.statExecutedInstType::SimdFloatReduceCmp            0      0.00%     59.49% # Class of executed instruction. (Count)
system.cpu.exec_context.thread_0.statExecutedInstType::SimdAes            0      0.00%     59.49% # Class of executed instruction. (Count)
system.cpu.exec_context.thread_0.statExecutedInstType::SimdAesMix            0      0.00%     59.49% # Class of executed instruction. (Count)
system.cpu.exec_context.thread_0.statExecutedInstType::SimdSha1Hash            0      0.00%     59.49% # Class of executed instruction. (Count)
system.cpu.exec_context.thread_0.statExecutedInstType::SimdSha1Hash2            0      0.00%     59.49% # Class of executed instruction. (Count)
system.cpu.exec_context.thread_0.statExecutedInstType::SimdSha256Hash            0      0.00%     59.49% # Class of executed instruction. (Count)
system.cpu.exec_context.thread_0.statExecutedInstType::SimdSha256Hash2            0      0.00%     59.49% # Class of executed instruction. (Count)
system.cpu.exec_context.thread_0.statExecutedInstType::SimdShaSigma2            0      0.00%     59.49% # Class of executed instruction. (Count)
system.cpu.exec_context.thread_0.statExecutedInstType::SimdShaSigma3            0      0.00%     59.49% # Class of executed instruction. (Count)
system.cpu.exec_context.thread_0.statExecutedInstType::SimdPredAlu            0      0.00%     59.49% # Class of executed instruction. (Count)
system.cpu.exec_context.thread_0.statExecutedInstType::MemRead    225946780     30.92%     90.41% # Class of executed instruction. (Count)
system.cpu.exec_context.thread_0.statExecutedInstType::MemWrite     70047183      9.59%    100.00% # Class of executed instruction. (Count)
system.cpu.exec_context.thread_0.statExecutedInstType::FloatMemRead           64      0.00%    100.00% # Class of executed instruction. (Count)
system.cpu.exec_context.thread_0.statExecutedInstType::FloatMemWrite          164      0.00%    100.00% # Class of executed instruction. (Count)
system.cpu.exec_context.thread_0.statExecutedInstType::IprAccess            0      0.00%    100.00% # Class of executed instruction. (Count)
system.cpu.exec_context.thread_0.statExecutedInstType::InstPrefetch            0      0.00%    100.00% # Class of executed instruction. (Count)
system.cpu.exec_context.thread_0.statExecutedInstType::total    730693392                       # Class of executed instruction. (Count)
system.cpu.icache.demandHits::cpu.inst      687750185                       # number of demand (read+write) hits (Count)
system.cpu.icache.demandHits::total         687750185                       # number of demand (read+write) hits (Count)
system.cpu.icache.overallHits::cpu.inst     687750185                       # number of overall hits (Count)
system.cpu.icache.overallHits::total        687750185                       # number of overall hits (Count)
system.cpu.icache.demandMisses::cpu.inst          994                       # number of demand (read+write) misses (Count)
system.cpu.icache.demandMisses::total             994                       # number of demand (read+write) misses (Count)
system.cpu.icache.overallMisses::cpu.inst          994                       # number of overall misses (Count)
system.cpu.icache.overallMisses::total            994                       # number of overall misses (Count)
system.cpu.icache.demandMissLatency::cpu.inst     79147500                       # number of demand (read+write) miss ticks (Tick)
system.cpu.icache.demandMissLatency::total     79147500                       # number of demand (read+write) miss ticks (Tick)
system.cpu.icache.overallMissLatency::cpu.inst     79147500                       # number of overall miss ticks (Tick)
system.cpu.icache.overallMissLatency::total     79147500                       # number of overall miss ticks (Tick)
system.cpu.icache.demandAccesses::cpu.inst    687751179                       # number of demand (read+write) accesses (Count)
system.cpu.icache.demandAccesses::total     687751179                       # number of demand (read+write) accesses (Count)
system.cpu.icache.overallAccesses::cpu.inst    687751179                       # number of overall (read+write) accesses (Count)
system.cpu.icache.overallAccesses::total    687751179                       # number of overall (read+write) accesses (Count)
system.cpu.icache.demandMissRate::cpu.inst     0.000001                       # miss rate for demand accesses (Ratio)
system.cpu.icache.demandMissRate::total      0.000001                       # miss rate for demand accesses (Ratio)
system.cpu.icache.overallMissRate::cpu.inst     0.000001                       # miss rate for overall accesses (Ratio)
system.cpu.icache.overallMissRate::total     0.000001                       # miss rate for overall accesses (Ratio)
system.cpu.icache.demandAvgMissLatency::cpu.inst 79625.251509                       # average overall miss latency in ticks ((Tick/Count))
system.cpu.icache.demandAvgMissLatency::total 79625.251509                       # average overall miss latency in ticks ((Tick/Count))
system.cpu.icache.overallAvgMissLatency::cpu.inst 79625.251509                       # average overall miss latency ((Tick/Count))
system.cpu.icache.overallAvgMissLatency::total 79625.251509                       # average overall miss latency ((Tick/Count))
system.cpu.icache.blockedCycles::no_mshrs            0                       # number of cycles access was blocked (Cycle)
system.cpu.icache.blockedCycles::no_targets            0                       # number of cycles access was blocked (Cycle)
system.cpu.icache.blockedCauses::no_mshrs            0                       # number of times access was blocked (Count)
system.cpu.icache.blockedCauses::no_targets            0                       # number of times access was blocked (Count)
system.cpu.icache.avgBlocked::no_mshrs            nan                       # average number of cycles each access was blocked ((Cycle/Count))
system.cpu.icache.avgBlocked::no_targets          nan                       # average number of cycles each access was blocked ((Cycle/Count))
system.cpu.icache.writebacks::writebacks           43                       # number of writebacks (Count)
system.cpu.icache.writebacks::total                43                       # number of writebacks (Count)
system.cpu.icache.demandMshrMisses::cpu.inst          994                       # number of demand (read+write) MSHR misses (Count)
system.cpu.icache.demandMshrMisses::total          994                       # number of demand (read+write) MSHR misses (Count)
system.cpu.icache.overallMshrMisses::cpu.inst          994                       # number of overall MSHR misses (Count)
system.cpu.icache.overallMshrMisses::total          994                       # number of overall MSHR misses (Count)
system.cpu.icache.demandMshrMissLatency::cpu.inst     78153500                       # number of demand (read+write) MSHR miss ticks (Tick)
system.cpu.icache.demandMshrMissLatency::total     78153500                       # number of demand (read+write) MSHR miss ticks (Tick)
system.cpu.icache.overallMshrMissLatency::cpu.inst     78153500                       # number of overall MSHR miss ticks (Tick)
system.cpu.icache.overallMshrMissLatency::total     78153500                       # number of overall MSHR miss ticks (Tick)
system.cpu.icache.demandMshrMissRate::cpu.inst     0.000001                       # mshr miss ratio for demand accesses (Ratio)
system.cpu.icache.demandMshrMissRate::total     0.000001                       # mshr miss ratio for demand accesses (Ratio)
system.cpu.icache.overallMshrMissRate::cpu.inst     0.000001                       # mshr miss ratio for overall accesses (Ratio)
system.cpu.icache.overallMshrMissRate::total     0.000001                       # mshr miss ratio for overall accesses (Ratio)
system.cpu.icache.demandAvgMshrMissLatency::cpu.inst 78625.251509                       # average overall mshr miss latency ((Tick/Count))
system.cpu.icache.demandAvgMshrMissLatency::total 78625.251509                       # average overall mshr miss latency ((Tick/Count))
system.cpu.icache.overallAvgMshrMissLatency::cpu.inst 78625.251509                       # average overall mshr miss latency ((Tick/Count))
system.cpu.icache.overallAvgMshrMissLatency::total 78625.251509                       # average overall mshr miss latency ((Tick/Count))
system.cpu.icache.replacements                     43                       # number of replacements (Count)
system.cpu.icache.ReadReq.hits::cpu.inst    687750185                       # number of ReadReq hits (Count)
system.cpu.icache.ReadReq.hits::total       687750185                       # number of ReadReq hits (Count)
system.cpu.icache.ReadReq.misses::cpu.inst          994                       # number of ReadReq misses (Count)
system.cpu.icache.ReadReq.misses::total           994                       # number of ReadReq misses (Count)
system.cpu.icache.ReadReq.missLatency::cpu.inst     79147500                       # number of ReadReq miss ticks (Tick)
system.cpu.icache.ReadReq.missLatency::total     79147500                       # number of ReadReq miss ticks (Tick)
system.cpu.icache.ReadReq.accesses::cpu.inst    687751179                       # number of ReadReq accesses(hits+misses) (Count)
system.cpu.icache.ReadReq.accesses::total    687751179                       # number of ReadReq accesses(hits+misses) (Count)
system.cpu.icache.ReadReq.missRate::cpu.inst     0.000001                       # miss rate for ReadReq accesses (Ratio)
system.cpu.icache.ReadReq.missRate::total     0.000001                       # miss rate for ReadReq accesses (Ratio)
system.cpu.icache.ReadReq.avgMissLatency::cpu.inst 79625.251509                       # average ReadReq miss latency ((Tick/Count))
system.cpu.icache.ReadReq.avgMissLatency::total 79625.251509                       # average ReadReq miss latency ((Tick/Count))
system.cpu.icache.ReadReq.mshrMisses::cpu.inst          994                       # number of ReadReq MSHR misses (Count)
system.cpu.icache.ReadReq.mshrMisses::total          994                       # number of ReadReq MSHR misses (Count)
system.cpu.icache.ReadReq.mshrMissLatency::cpu.inst     78153500                       # number of ReadReq MSHR miss ticks (Tick)
system.cpu.icache.ReadReq.mshrMissLatency::total     78153500                       # number of ReadReq MSHR miss ticks (Tick)
system.cpu.icache.ReadReq.mshrMissRate::cpu.inst     0.000001                       # mshr miss rate for ReadReq accesses (Ratio)
system.cpu.icache.ReadReq.mshrMissRate::total     0.000001                       # mshr miss rate for ReadReq accesses (Ratio)
system.cpu.icache.ReadReq.avgMshrMissLatency::cpu.inst 78625.251509                       # average ReadReq mshr miss latency ((Tick/Count))
system.cpu.icache.ReadReq.avgMshrMissLatency::total 78625.251509                       # average ReadReq mshr miss latency ((Tick/Count))
system.cpu.icache.power_state.pwrStateResidencyTicks::UNDEFINED 1054653499500                       # Cumulative time (in ticks) in various power states (Tick)
system.cpu.icache.tags.tagsInUse           665.408048                       # Average ticks per tags in use ((Tick/Count))
system.cpu.icache.tags.totalRefs            687751179                       # Total number of references to valid blocks. (Count)
system.cpu.icache.tags.sampledRefs                994                       # Sample count of references to valid blocks. (Count)
system.cpu.icache.tags.avgRefs           691902.594567                       # Average number of references to valid blocks. ((Count/Count))
system.cpu.icache.tags.warmupTick               87500                       # The tick when the warmup percentage was hit. (Tick)
system.cpu.icache.tags.occupancies::cpu.inst   665.408048                       # Average occupied blocks per tick, per requestor ((Count/Tick))
system.cpu.icache.tags.avgOccs::cpu.inst     0.324906                       # Average percentage of cache occupancy ((Ratio/Tick))
system.cpu.icache.tags.avgOccs::total        0.324906                       # Average percentage of cache occupancy ((Ratio/Tick))
system.cpu.icache.tags.occupanciesTaskId::1024          951                       # Occupied blocks per task id (Count)
system.cpu.icache.tags.ageTaskId_1024::1            7                       # Occupied blocks per task id, per block age (Count)
system.cpu.icache.tags.ageTaskId_1024::3           25                       # Occupied blocks per task id, per block age (Count)
system.cpu.icache.tags.ageTaskId_1024::4          919                       # Occupied blocks per task id, per block age (Count)
system.cpu.icache.tags.ratioOccsTaskId::1024     0.464355                       # Ratio of occupied blocks and all blocks, per task id (Ratio)
system.cpu.icache.tags.tagAccesses         1375503352                       # Number of tag accesses (Count)
system.cpu.icache.tags.dataAccesses        1375503352                       # Number of data accesses (Count)
system.cpu.icache.tags.power_state.pwrStateResidencyTicks::UNDEFINED 1054653499500                       # Cumulative time (in ticks) in various power states (Tick)
system.cpu.interrupts.clk_domain.clock           8000                       # Clock period in ticks (Tick)
system.cpu.itb_walker_cache.blockedCycles::no_mshrs            0                       # number of cycles access was blocked (Cycle)
system.cpu.itb_walker_cache.blockedCycles::no_targets            0                       # number of cycles access was blocked (Cycle)
system.cpu.itb_walker_cache.blockedCauses::no_mshrs            0                       # number of times access was blocked (Count)
system.cpu.itb_walker_cache.blockedCauses::no_targets            0                       # number of times access was blocked (Count)
system.cpu.itb_walker_cache.avgBlocked::no_mshrs          nan                       # average number of cycles each access was blocked ((Cycle/Count))
system.cpu.itb_walker_cache.avgBlocked::no_targets          nan                       # average number of cycles each access was blocked ((Cycle/Count))
system.cpu.itb_walker_cache.replacements            0                       # number of replacements (Count)
system.cpu.itb_walker_cache.power_state.pwrStateResidencyTicks::UNDEFINED 1054653499500                       # Cumulative time (in ticks) in various power states (Tick)
system.cpu.itb_walker_cache.tags.tagsInUse            0                       # Average ticks per tags in use ((Tick/Count))
system.cpu.itb_walker_cache.tags.totalRefs            0                       # Total number of references to valid blocks. (Count)
system.cpu.itb_walker_cache.tags.sampledRefs            0                       # Sample count of references to valid blocks. (Count)
system.cpu.itb_walker_cache.tags.avgRefs          nan                       # Average number of references to valid blocks. ((Count/Count))
system.cpu.itb_walker_cache.tags.warmupTick            0                       # The tick when the warmup percentage was hit. (Tick)
system.cpu.itb_walker_cache.tags.tagAccesses            0                       # Number of tag accesses (Count)
system.cpu.itb_walker_cache.tags.dataAccesses            0                       # Number of data accesses (Count)
system.cpu.itb_walker_cache.tags.power_state.pwrStateResidencyTicks::UNDEFINED 1054653499500                       # Cumulative time (in ticks) in various power states (Tick)
system.cpu.mmu.dtb.rdAccesses               225946851                       # TLB accesses on read requests (Count)
system.cpu.mmu.dtb.wrAccesses                70047348                       # TLB accesses on write requests (Count)
system.cpu.mmu.dtb.rdMisses                    616831                       # TLB misses on read requests (Count)
system.cpu.mmu.dtb.wrMisses                    542722                       # TLB misses on write requests (Count)
system.cpu.mmu.dtb.walker.power_state.pwrStateResidencyTicks::UNDEFINED 1054653499500                       # Cumulative time (in ticks) in various power states (Tick)
system.cpu.mmu.itb.rdAccesses                       0                       # TLB accesses on read requests (Count)
system.cpu.mmu.itb.wrAccesses               687751179                       # TLB accesses on write requests (Count)
system.cpu.mmu.itb.rdMisses                         0                       # TLB misses on read requests (Count)
system.cpu.mmu.itb.wrMisses                        57                       # TLB misses on write requests (Count)
system.cpu.mmu.itb.walker.power_state.pwrStateResidencyTicks::UNDEFINED 1054653499500                       # Cumulative time (in ticks) in various power states (Tick)
system.cpu.power_state.pwrStateResidencyTicks::ON 1054653499500                       # Cumulative time (in ticks) in various power states (Tick)
system.cpu.thread_0.numInsts                        0                       # Number of Instructions committed (Count)
system.cpu.thread_0.numOps                          0                       # Number of Ops committed (Count)
system.cpu.thread_0.numMemRefs                      0                       # Number of Memory References (Count)
system.cpu.workload.numSyscalls                    86                       # Number of system calls (Count)
system.cpu_clk_domain.clock                       500                       # Clock period in ticks (Tick)
system.cpu_voltage_domain.voltage                   1                       # Voltage in Volts (Volt)
system.l2.demandHits::cpu.inst                      1                       # number of demand (read+write) hits (Count)
system.l2.demandHits::cpu.data                1372587                       # number of demand (read+write) hits (Count)
system.l2.demandHits::total                   1372588                       # number of demand (read+write) hits (Count)
system.l2.overallHits::cpu.inst                     1                       # number of overall hits (Count)
system.l2.overallHits::cpu.data               1372587                       # number of overall hits (Count)
system.l2.overallHits::total                  1372588                       # number of overall hits (Count)
system.l2.demandMisses::cpu.inst                  993                       # number of demand (read+write) misses (Count)
system.l2.demandMisses::cpu.data               644359                       # number of demand (read+write) misses (Count)
system.l2.demandMisses::total                  645352                       # number of demand (read+write) misses (Count)
system.l2.overallMisses::cpu.inst                 993                       # number of overall misses (Count)
system.l2.overallMisses::cpu.data              644359                       # number of overall misses (Count)
system.l2.overallMisses::total                 645352                       # number of overall misses (Count)
system.l2.demandMissLatency::cpu.inst        76650500                       # number of demand (read+write) miss ticks (Tick)
system.l2.demandMissLatency::cpu.data     54592129500                       # number of demand (read+write) miss ticks (Tick)
system.l2.demandMissLatency::total        54668780000                       # number of demand (read+write) miss ticks (Tick)
system.l2.overallMissLatency::cpu.inst       76650500                       # number of overall miss ticks (Tick)
system.l2.overallMissLatency::cpu.data    54592129500                       # number of overall miss ticks (Tick)
system.l2.overallMissLatency::total       54668780000                       # number of overall miss ticks (Tick)
system.l2.demandAccesses::cpu.inst                994                       # number of demand (read+write) accesses (Count)
system.l2.demandAccesses::cpu.data            2016946                       # number of demand (read+write) accesses (Count)
system.l2.demandAccesses::total               2017940                       # number of demand (read+write) accesses (Count)
system.l2.overallAccesses::cpu.inst               994                       # number of overall (read+write) accesses (Count)
system.l2.overallAccesses::cpu.data           2016946                       # number of overall (read+write) accesses (Count)
system.l2.overallAccesses::total              2017940                       # number of overall (read+write) accesses (Count)
system.l2.demandMissRate::cpu.inst           0.998994                       # miss rate for demand accesses (Ratio)
system.l2.demandMissRate::cpu.data           0.319473                       # miss rate for demand accesses (Ratio)
system.l2.demandMissRate::total              0.319807                       # miss rate for demand accesses (Ratio)
system.l2.overallMissRate::cpu.inst          0.998994                       # miss rate for overall accesses (Ratio)
system.l2.overallMissRate::cpu.data          0.319473                       # miss rate for overall accesses (Ratio)
system.l2.overallMissRate::total             0.319807                       # miss rate for overall accesses (Ratio)
system.l2.demandAvgMissLatency::cpu.inst 77190.835851                       # average overall miss latency in ticks ((Tick/Count))
system.l2.demandAvgMissLatency::cpu.data 84723.158208                       # average overall miss latency in ticks ((Tick/Count))
system.l2.demandAvgMissLatency::total    84711.568260                       # average overall miss latency in ticks ((Tick/Count))
system.l2.overallAvgMissLatency::cpu.inst 77190.835851                       # average overall miss latency ((Tick/Count))
system.l2.overallAvgMissLatency::cpu.data 84723.158208                       # average overall miss latency ((Tick/Count))
system.l2.overallAvgMissLatency::total   84711.568260                       # average overall miss latency ((Tick/Count))
system.l2.blockedCycles::no_mshrs                   0                       # number of cycles access was blocked (Cycle)
system.l2.blockedCycles::no_targets                 0                       # number of cycles access was blocked (Cycle)
system.l2.blockedCauses::no_mshrs                   0                       # number of times access was blocked (Count)
system.l2.blockedCauses::no_targets                 0                       # number of times access was blocked (Count)
system.l2.avgBlocked::no_mshrs                    nan                       # average number of cycles each access was blocked ((Cycle/Count))
system.l2.avgBlocked::no_targets                  nan                       # average number of cycles each access was blocked ((Cycle/Count))
system.l2.writebacks::writebacks               385430                       # number of writebacks (Count)
system.l2.writebacks::total                    385430                       # number of writebacks (Count)
system.l2.demandMshrMisses::cpu.inst              993                       # number of demand (read+write) MSHR misses (Count)
system.l2.demandMshrMisses::cpu.data           644359                       # number of demand (read+write) MSHR misses (Count)
system.l2.demandMshrMisses::total              645352                       # number of demand (read+write) MSHR misses (Count)
system.l2.overallMshrMisses::cpu.inst             993                       # number of overall MSHR misses (Count)
system.l2.overallMshrMisses::cpu.data          644359                       # number of overall MSHR misses (Count)
system.l2.overallMshrMisses::total             645352                       # number of overall MSHR misses (Count)
system.l2.demandMshrMissLatency::cpu.inst     66720500                       # number of demand (read+write) MSHR miss ticks (Tick)
system.l2.demandMshrMissLatency::cpu.data  48148539500                       # number of demand (read+write) MSHR miss ticks (Tick)
system.l2.demandMshrMissLatency::total    48215260000                       # number of demand (read+write) MSHR miss ticks (Tick)
system.l2.overallMshrMissLatency::cpu.inst     66720500                       # number of overall MSHR miss ticks (Tick)
system.l2.overallMshrMissLatency::cpu.data  48148539500                       # number of overall MSHR miss ticks (Tick)
system.l2.overallMshrMissLatency::total   48215260000                       # number of overall MSHR miss ticks (Tick)
system.l2.demandMshrMissRate::cpu.inst       0.998994                       # mshr miss ratio for demand accesses (Ratio)
system.l2.demandMshrMissRate::cpu.data       0.319473                       # mshr miss ratio for demand accesses (Ratio)
system.l2.demandMshrMissRate::total          0.319807                       # mshr miss ratio for demand accesses (Ratio)
system.l2.overallMshrMissRate::cpu.inst      0.998994                       # mshr miss ratio for overall accesses (Ratio)
system.l2.overallMshrMissRate::cpu.data      0.319473                       # mshr miss ratio for overall accesses (Ratio)
system.l2.overallMshrMissRate::total         0.319807                       # mshr miss ratio for overall accesses (Ratio)
system.l2.demandAvgMshrMissLatency::cpu.inst 67190.835851                       # average overall mshr miss latency ((Tick/Count))
system.l2.demandAvgMshrMissLatency::cpu.data 74723.158208                       # average overall mshr miss latency ((Tick/Count))
system.l2.demandAvgMshrMissLatency::total 74711.568260                       # average overall mshr miss latency ((Tick/Count))
system.l2.overallAvgMshrMissLatency::cpu.inst 67190.835851                       # average overall mshr miss latency ((Tick/Count))
system.l2.overallAvgMshrMissLatency::cpu.data 74723.158208                       # average overall mshr miss latency ((Tick/Count))
system.l2.overallAvgMshrMissLatency::total 74711.568260                       # average overall mshr miss latency ((Tick/Count))
system.l2.replacements                         629615                       # number of replacements (Count)
system.l2.CleanEvict.mshrMisses::writebacks         1539                       # number of CleanEvict MSHR misses (Count)
system.l2.CleanEvict.mshrMisses::total           1539                       # number of CleanEvict MSHR misses (Count)
system.l2.CleanEvict.mshrMissRate::writebacks          inf                       # mshr miss rate for CleanEvict accesses (Ratio)
system.l2.CleanEvict.mshrMissRate::total          inf                       # mshr miss rate for CleanEvict accesses (Ratio)
system.l2.ReadCleanReq.hits::cpu.inst               1                       # number of ReadCleanReq hits (Count)
system.l2.ReadCleanReq.hits::total                  1                       # number of ReadCleanReq hits (Count)
system.l2.ReadCleanReq.misses::cpu.inst           993                       # number of ReadCleanReq misses (Count)
system.l2.ReadCleanReq.misses::total              993                       # number of ReadCleanReq misses (Count)
system.l2.ReadCleanReq.missLatency::cpu.inst     76650500                       # number of ReadCleanReq miss ticks (Tick)
system.l2.ReadCleanReq.missLatency::total     76650500                       # number of ReadCleanReq miss ticks (Tick)
system.l2.ReadCleanReq.accesses::cpu.inst          994                       # number of ReadCleanReq accesses(hits+misses) (Count)
system.l2.ReadCleanReq.accesses::total            994                       # number of ReadCleanReq accesses(hits+misses) (Count)
system.l2.ReadCleanReq.missRate::cpu.inst     0.998994                       # miss rate for ReadCleanReq accesses (Ratio)
system.l2.ReadCleanReq.missRate::total       0.998994                       # miss rate for ReadCleanReq accesses (Ratio)
system.l2.ReadCleanReq.avgMissLatency::cpu.inst 77190.835851                       # average ReadCleanReq miss latency ((Tick/Count))
system.l2.ReadCleanReq.avgMissLatency::total 77190.835851                       # average ReadCleanReq miss latency ((Tick/Count))
system.l2.ReadCleanReq.mshrMisses::cpu.inst          993                       # number of ReadCleanReq MSHR misses (Count)
system.l2.ReadCleanReq.mshrMisses::total          993                       # number of ReadCleanReq MSHR misses (Count)
system.l2.ReadCleanReq.mshrMissLatency::cpu.inst     66720500                       # number of ReadCleanReq MSHR miss ticks (Tick)
system.l2.ReadCleanReq.mshrMissLatency::total     66720500                       # number of ReadCleanReq MSHR miss ticks (Tick)
system.l2.ReadCleanReq.mshrMissRate::cpu.inst     0.998994                       # mshr miss rate for ReadCleanReq accesses (Ratio)
system.l2.ReadCleanReq.mshrMissRate::total     0.998994                       # mshr miss rate for ReadCleanReq accesses (Ratio)
system.l2.ReadCleanReq.avgMshrMissLatency::cpu.inst 67190.835851                       # average ReadCleanReq mshr miss latency ((Tick/Count))
system.l2.ReadCleanReq.avgMshrMissLatency::total 67190.835851                       # average ReadCleanReq mshr miss latency ((Tick/Count))
system.l2.ReadExReq.hits::cpu.data             268818                       # number of ReadExReq hits (Count)
system.l2.ReadExReq.hits::total                268818                       # number of ReadExReq hits (Count)
system.l2.ReadExReq.misses::cpu.data           319399                       # number of ReadExReq misses (Count)
system.l2.ReadExReq.misses::total              319399                       # number of ReadExReq misses (Count)
system.l2.ReadExReq.missLatency::cpu.data  27653372000                       # number of ReadExReq miss ticks (Tick)
system.l2.ReadExReq.missLatency::total    27653372000                       # number of ReadExReq miss ticks (Tick)
system.l2.ReadExReq.accesses::cpu.data         588217                       # number of ReadExReq accesses(hits+misses) (Count)
system.l2.ReadExReq.accesses::total            588217                       # number of ReadExReq accesses(hits+misses) (Count)
system.l2.ReadExReq.missRate::cpu.data       0.542995                       # miss rate for ReadExReq accesses (Ratio)
system.l2.ReadExReq.missRate::total          0.542995                       # miss rate for ReadExReq accesses (Ratio)
system.l2.ReadExReq.avgMissLatency::cpu.data 86579.394425                       # average ReadExReq miss latency ((Tick/Count))
system.l2.ReadExReq.avgMissLatency::total 86579.394425                       # average ReadExReq miss latency ((Tick/Count))
system.l2.ReadExReq.mshrMisses::cpu.data       319399                       # number of ReadExReq MSHR misses (Count)
system.l2.ReadExReq.mshrMisses::total          319399                       # number of ReadExReq MSHR misses (Count)
system.l2.ReadExReq.mshrMissLatency::cpu.data  24459382000                       # number of ReadExReq MSHR miss ticks (Tick)
system.l2.ReadExReq.mshrMissLatency::total  24459382000                       # number of ReadExReq MSHR miss ticks (Tick)
system.l2.ReadExReq.mshrMissRate::cpu.data     0.542995                       # mshr miss rate for ReadExReq accesses (Ratio)
system.l2.ReadExReq.mshrMissRate::total      0.542995                       # mshr miss rate for ReadExReq accesses (Ratio)
system.l2.ReadExReq.avgMshrMissLatency::cpu.data 76579.394425                       # average ReadExReq mshr miss latency ((Tick/Count))
system.l2.ReadExReq.avgMshrMissLatency::total 76579.394425                       # average ReadExReq mshr miss latency ((Tick/Count))
system.l2.ReadSharedReq.hits::cpu.data        1103769                       # number of ReadSharedReq hits (Count)
system.l2.ReadSharedReq.hits::total           1103769                       # number of ReadSharedReq hits (Count)
system.l2.ReadSharedReq.misses::cpu.data       324960                       # number of ReadSharedReq misses (Count)
system.l2.ReadSharedReq.misses::total          324960                       # number of ReadSharedReq misses (Count)
system.l2.ReadSharedReq.missLatency::cpu.data  26938757500                       # number of ReadSharedReq miss ticks (Tick)
system.l2.ReadSharedReq.missLatency::total  26938757500                       # number of ReadSharedReq miss ticks (Tick)
system.l2.ReadSharedReq.accesses::cpu.data      1428729                       # number of ReadSharedReq accesses(hits+misses) (Count)
system.l2.ReadSharedReq.accesses::total       1428729                       # number of ReadSharedReq accesses(hits+misses) (Count)
system.l2.ReadSharedReq.missRate::cpu.data     0.227447                       # miss rate for ReadSharedReq accesses (Ratio)
system.l2.ReadSharedReq.missRate::total      0.227447                       # miss rate for ReadSharedReq accesses (Ratio)
system.l2.ReadSharedReq.avgMissLatency::cpu.data 82898.687531                       # average ReadSharedReq miss latency ((Tick/Count))
system.l2.ReadSharedReq.avgMissLatency::total 82898.687531                       # average ReadSharedReq miss latency ((Tick/Count))
system.l2.ReadSharedReq.mshrMisses::cpu.data       324960                       # number of ReadSharedReq MSHR misses (Count)
system.l2.ReadSharedReq.mshrMisses::total       324960                       # number of ReadSharedReq MSHR misses (Count)
system.l2.ReadSharedReq.mshrMissLatency::cpu.data  23689157500                       # number of ReadSharedReq MSHR miss ticks (Tick)
system.l2.ReadSharedReq.mshrMissLatency::total  23689157500                       # number of ReadSharedReq MSHR miss ticks (Tick)
system.l2.ReadSharedReq.mshrMissRate::cpu.data     0.227447                       # mshr miss rate for ReadSharedReq accesses (Ratio)
system.l2.ReadSharedReq.mshrMissRate::total     0.227447                       # mshr miss rate for ReadSharedReq accesses (Ratio)
system.l2.ReadSharedReq.avgMshrMissLatency::cpu.data 72898.687531                       # average ReadSharedReq mshr miss latency ((Tick/Count))
system.l2.ReadSharedReq.avgMshrMissLatency::total 72898.687531                       # average ReadSharedReq mshr miss latency ((Tick/Count))
system.l2.WritebackClean.hits::writebacks           43                       # number of WritebackClean hits (Count)
system.l2.WritebackClean.hits::total               43                       # number of WritebackClean hits (Count)
system.l2.WritebackClean.accesses::writebacks           43                       # number of WritebackClean accesses(hits+misses) (Count)
system.l2.WritebackClean.accesses::total           43                       # number of WritebackClean accesses(hits+misses) (Count)
system.l2.WritebackDirty.hits::writebacks       930127                       # number of WritebackDirty hits (Count)
system.l2.WritebackDirty.hits::total           930127                       # number of WritebackDirty hits (Count)
system.l2.WritebackDirty.accesses::writebacks       930127                       # number of WritebackDirty accesses(hits+misses) (Count)
system.l2.WritebackDirty.accesses::total       930127                       # number of WritebackDirty accesses(hits+misses) (Count)
system.l2.power_state.pwrStateResidencyTicks::UNDEFINED 1054653499500                       # Cumulative time (in ticks) in various power states (Tick)
system.l2.tags.tagsInUse                 16330.699689                       # Average ticks per tags in use ((Tick/Count))
system.l2.tags.totalRefs                      4031341                       # Total number of references to valid blocks. (Count)
system.l2.tags.sampledRefs                     645999                       # Sample count of references to valid blocks. (Count)
system.l2.tags.avgRefs                       6.240476                       # Average number of references to valid blocks. ((Count/Count))
system.l2.tags.warmupTick                       77000                       # The tick when the warmup percentage was hit. (Tick)
system.l2.tags.occupancies::writebacks      21.026739                       # Average occupied blocks per tick, per requestor ((Count/Tick))
system.l2.tags.occupancies::cpu.inst        38.494539                       # Average occupied blocks per tick, per requestor ((Count/Tick))
system.l2.tags.occupancies::cpu.data     16271.178411                       # Average occupied blocks per tick, per requestor ((Count/Tick))
system.l2.tags.avgOccs::writebacks           0.001283                       # Average percentage of cache occupancy ((Ratio/Tick))
system.l2.tags.avgOccs::cpu.inst             0.002350                       # Average percentage of cache occupancy ((Ratio/Tick))
system.l2.tags.avgOccs::cpu.data             0.993114                       # Average percentage of cache occupancy ((Ratio/Tick))
system.l2.tags.avgOccs::total                0.996747                       # Average percentage of cache occupancy ((Ratio/Tick))
system.l2.tags.occupanciesTaskId::1024          16384                       # Occupied blocks per task id (Count)
system.l2.tags.ageTaskId_1024::1                    9                       # Occupied blocks per task id, per block age (Count)
system.l2.tags.ageTaskId_1024::2                   16                       # Occupied blocks per task id, per block age (Count)
system.l2.tags.ageTaskId_1024::3                  224                       # Occupied blocks per task id, per block age (Count)
system.l2.tags.ageTaskId_1024::4                16135                       # Occupied blocks per task id, per block age (Count)
system.l2.tags.ratioOccsTaskId::1024                1                       # Ratio of occupied blocks and all blocks, per task id (Ratio)
system.l2.tags.tagAccesses                   16777519                       # Number of tag accesses (Count)
system.l2.tags.dataAccesses                  16777519                       # Number of data accesses (Count)
system.l2.tags.power_state.pwrStateResidencyTicks::UNDEFINED 1054653499500                       # Cumulative time (in ticks) in various power states (Tick)
system.mem_ctrls.avgPriority_writebacks::samples    385430.00                       # Average QoS priority value for accepted requests (Count)
system.mem_ctrls.avgPriority_cpu.inst::samples       993.00                       # Average QoS priority value for accepted requests (Count)
system.mem_ctrls.avgPriority_cpu.data::samples    643581.00                       # Average QoS priority value for accepted requests (Count)
system.mem_ctrls.priorityMinLatency      0.000000018750                       # per QoS priority minimum request to response latency (Second)
system.mem_ctrls.priorityMaxLatency      0.351573352500                       # per QoS priority maximum request to response latency (Second)
system.mem_ctrls.numReadWriteTurnArounds        22268                       # Number of turnarounds from READ to WRITE (Count)
system.mem_ctrls.numWriteReadTurnArounds        22268                       # Number of turnarounds from WRITE to READ (Count)
system.mem_ctrls.numStayReadState             1934881                       # Number of times bus staying in READ state (Count)
system.mem_ctrls.numStayWriteState             363532                       # Number of times bus staying in WRITE state (Count)
system.mem_ctrls.readReqs                      645352                       # Number of read requests accepted (Count)
system.mem_ctrls.writeReqs                     385430                       # Number of write requests accepted (Count)
system.mem_ctrls.readBursts                    645352                       # Number of controller read bursts, including those serviced by the write queue (Count)
system.mem_ctrls.writeBursts                   385430                       # Number of controller write bursts, including those merged in the write queue (Count)
system.mem_ctrls.servicedByWrQ                    778                       # Number of controller read bursts serviced by the write queue (Count)
system.mem_ctrls.mergedWrBursts                     0                       # Number of controller write bursts merged with an existing one (Count)
system.mem_ctrls.neitherReadNorWriteReqs            0                       # Number of requests that are neither read nor write (Count)
system.mem_ctrls.avgRdQLen                       1.00                       # Average read queue length when enqueuing ((Count/Tick))
system.mem_ctrls.avgWrQLen                      22.65                       # Average write queue length when enqueuing ((Count/Tick))
system.mem_ctrls.numRdRetry                         0                       # Number of times read queue was full causing retry (Count)
system.mem_ctrls.numWrRetry                         0                       # Number of times write queue was full causing retry (Count)
system.mem_ctrls.readPktSize::0                     0                       # Read request sizes (log2) (Count)
system.mem_ctrls.readPktSize::1                     0                       # Read request sizes (log2) (Count)
system.mem_ctrls.readPktSize::2                     0                       # Read request sizes (log2) (Count)
system.mem_ctrls.readPktSize::3                     0                       # Read request sizes (log2) (Count)
system.mem_ctrls.readPktSize::4                     0                       # Read request sizes (log2) (Count)
system.mem_ctrls.readPktSize::5                     0                       # Read request sizes (log2) (Count)
system.mem_ctrls.readPktSize::6                645352                       # Read request sizes (log2) (Count)
system.mem_ctrls.writePktSize::0                    0                       # Write request sizes (log2) (Count)
system.mem_ctrls.writePktSize::1                    0                       # Write request sizes (log2) (Count)
system.mem_ctrls.writePktSize::2                    0                       # Write request sizes (log2) (Count)
system.mem_ctrls.writePktSize::3                    0                       # Write request sizes (log2) (Count)
system.mem_ctrls.writePktSize::4                    0                       # Write request sizes (log2) (Count)
system.mem_ctrls.writePktSize::5                    0                       # Write request sizes (log2) (Count)
system.mem_ctrls.writePktSize::6               385430                       # Write request sizes (log2) (Count)
system.mem_ctrls.rdQLenPdf::0                  636008                       # What read queue length does an incoming req see (Count)
system.mem_ctrls.rdQLenPdf::1                    8049                       # What read queue length does an incoming req see (Count)
system.mem_ctrls.rdQLenPdf::2                     376                       # What read queue length does an incoming req see (Count)
system.mem_ctrls.rdQLenPdf::3                     141                       # What read queue length does an incoming req see (Count)
system.mem_ctrls.rdQLenPdf::4                       0                       # What read queue length does an incoming req see (Count)
system.mem_ctrls.rdQLenPdf::5                       0                       # What read queue length does an incoming req see (Count)
system.mem_ctrls.rdQLenPdf::6                       0                       # What read queue length does an incoming req see (Count)
system.mem_ctrls.rdQLenPdf::7                       0                       # What read queue length does an incoming req see (Count)
system.mem_ctrls.rdQLenPdf::8                       0                       # What read queue length does an incoming req see (Count)
system.mem_ctrls.rdQLenPdf::9                       0                       # What read queue length does an incoming req see (Count)
system.mem_ctrls.rdQLenPdf::10                      0                       # What read queue length does an incoming req see (Count)
system.mem_ctrls.rdQLenPdf::11                      0                       # What read queue length does an incoming req see (Count)
system.mem_ctrls.rdQLenPdf::12                      0                       # What read queue length does an incoming req see (Count)
system.mem_ctrls.rdQLenPdf::13                      0                       # What read queue length does an incoming req see (Count)
system.mem_ctrls.rdQLenPdf::14                      0                       # What read queue length does an incoming req see (Count)
system.mem_ctrls.rdQLenPdf::15                      0                       # What read queue length does an incoming req see (Count)
system.mem_ctrls.rdQLenPdf::16                      0                       # What read queue length does an incoming req see (Count)
system.mem_ctrls.rdQLenPdf::17                      0                       # What read queue length does an incoming req see (Count)
system.mem_ctrls.rdQLenPdf::18                      0                       # What read queue length does an incoming req see (Count)
system.mem_ctrls.rdQLenPdf::19                      0                       # What read queue length does an incoming req see (Count)
system.mem_ctrls.rdQLenPdf::20                      0                       # What read queue length does an incoming req see (Count)
system.mem_ctrls.rdQLenPdf::21                      0                       # What read queue length does an incoming req see (Count)
system.mem_ctrls.rdQLenPdf::22                      0                       # What read queue length does an incoming req see (Count)
system.mem_ctrls.rdQLenPdf::23                      0                       # What read queue length does an incoming req see (Count)
system.mem_ctrls.rdQLenPdf::24                      0                       # What read queue length does an incoming req see (Count)
system.mem_ctrls.rdQLenPdf::25                      0                       # What read queue length does an incoming req see (Count)
system.mem_ctrls.rdQLenPdf::26                      0                       # What read queue length does an incoming req see (Count)
system.mem_ctrls.rdQLenPdf::27                      0                       # What read queue length does an incoming req see (Count)
system.mem_ctrls.rdQLenPdf::28                      0                       # What read queue length does an incoming req see (Count)
system.mem_ctrls.rdQLenPdf::29                      0                       # What read queue length does an incoming req see (Count)
system.mem_ctrls.rdQLenPdf::30                      0                       # What read queue length does an incoming req see (Count)
system.mem_ctrls.rdQLenPdf::31                      0                       # What read queue length does an incoming req see (Count)
system.mem_ctrls.wrQLenPdf::0                       1                       # What write queue length does an incoming req see (Count)
system.mem_ctrls.wrQLenPdf::1                       1                       # What write queue length does an incoming req see (Count)
system.mem_ctrls.wrQLenPdf::2                       1                       # What write queue length does an incoming req see (Count)
system.mem_ctrls.wrQLenPdf::3                       1                       # What write queue length does an incoming req see (Count)
system.mem_ctrls.wrQLenPdf::4                       1                       # What write queue length does an incoming req see (Count)
system.mem_ctrls.wrQLenPdf::5                       1                       # What write queue length does an incoming req see (Count)
system.mem_ctrls.wrQLenPdf::6                       1                       # What write queue length does an incoming req see (Count)
system.mem_ctrls.wrQLenPdf::7                       1                       # What write queue length does an incoming req see (Count)
system.mem_ctrls.wrQLenPdf::8                       1                       # What write queue length does an incoming req see (Count)
[...]
system.mem_ctrls.dram.perBankWrBursts::12        24742                       # Per bank write bursts (Count)
system.mem_ctrls.dram.perBankWrBursts::13        24758                       # Per bank write bursts (Count)
system.mem_ctrls.dram.perBankWrBursts::14        24806                       # Per bank write bursts (Count)
system.mem_ctrls.dram.perBankWrBursts::15        24780                       # Per bank write bursts (Count)
system.mem_ctrls.dram.totQLat              9722997750                       # Total ticks spent queuing (Tick)
system.mem_ctrls.dram.totBusLat            3222870000                       # Total ticks spent in databus transfers (Tick)
system.mem_ctrls.dram.totMemAccLat        21808760250                       # Total ticks spent from burst creation until serviced by the DRAM (Tick)
system.mem_ctrls.dram.avgQLat                15084.38                       # Average queueing delay per DRAM burst ((Tick/Count))
system.mem_ctrls.dram.avgBusLat               5000.00                       # Average bus latency per DRAM burst ((Tick/Count))
system.mem_ctrls.dram.avgMemAccLat           33834.38                       # Average memory access latency per DRAM burst ((Tick/Count))
system.mem_ctrls.dram.readRowHits              300624                       # Number of row buffer hits during reads (Count)
system.mem_ctrls.dram.writeRowHits             159121                       # Number of row buffer hits during writes (Count)
system.mem_ctrls.dram.readRowHitRate            46.64                       # Row buffer hit rate for reads (Ratio)
system.mem_ctrls.dram.writeRowHitRate           41.29                       # Row buffer hit rate for writes (Ratio)
system.mem_ctrls.dram.bytesPerActivate::samples       570240                       # Bytes accessed per row activation (Byte)
system.mem_ctrls.dram.bytesPerActivate::mean   115.598765                       # Bytes accessed per row activation (Byte)
system.mem_ctrls.dram.bytesPerActivate::gmean    87.292209                       # Bytes accessed per row activation (Byte)
system.mem_ctrls.dram.bytesPerActivate::stdev   144.369287                       # Bytes accessed per row activation (Byte)
system.mem_ctrls.dram.bytesPerActivate::0-127       415314     72.83%     72.83% # Bytes accessed per row activation (Byte)
system.mem_ctrls.dram.bytesPerActivate::128-255       107122     18.79%     91.62% # Bytes accessed per row activation (Byte)
system.mem_ctrls.dram.bytesPerActivate::256-383        20093      3.52%     95.14% # Bytes accessed per row activation (Byte)
system.mem_ctrls.dram.bytesPerActivate::384-511         6459      1.13%     96.27% # Bytes accessed per row activation (Byte)
system.mem_ctrls.dram.bytesPerActivate::512-639        10514      1.84%     98.12% # Bytes accessed per row activation (Byte)
system.mem_ctrls.dram.bytesPerActivate::640-767         1141      0.20%     98.32% # Bytes accessed per row activation (Byte)
system.mem_ctrls.dram.bytesPerActivate::768-895          940      0.16%     98.48% # Bytes accessed per row activation (Byte)
system.mem_ctrls.dram.bytesPerActivate::896-1023          843      0.15%     98.63% # Bytes accessed per row activation (Byte)
system.mem_ctrls.dram.bytesPerActivate::1024-1151         7814      1.37%    100.00% # Bytes accessed per row activation (Byte)
system.mem_ctrls.dram.bytesPerActivate::total       570240                       # Bytes accessed per row activation (Byte)
system.mem_ctrls.dram.bytesRead              41252736                       # Total bytes read (Byte)
system.mem_ctrls.dram.bytesWritten           24666304                       # Total bytes written (Byte)
system.mem_ctrls.dram.avgRdBW               39.114966                       # Average DRAM read bandwidth in MiBytes/s ((Byte/Second))
system.mem_ctrls.dram.avgWrBW               23.388064                       # Average DRAM write bandwidth in MiBytes/s ((Byte/Second))
system.mem_ctrls.dram.peakBW                 12800.00                       # Theoretical peak bandwidth in MiByte/s ((Byte/Second))
system.mem_ctrls.dram.busUtil                    0.49                       # Data bus utilization in percentage (Ratio)
system.mem_ctrls.dram.busUtilRead                0.31                       # Data bus utilization in percentage for reads (Ratio)
system.mem_ctrls.dram.busUtilWrite               0.18                       # Data bus utilization in percentage for writes (Ratio)
system.mem_ctrls.dram.pageHitRate               44.64                       # Row buffer hit rate, read and write combined (Ratio)
system.mem_ctrls.dram.power_state.pwrStateResidencyTicks::UNDEFINED 1054653499500                       # Cumulative time (in ticks) in various power states (Tick)
system.mem_ctrls.dram.rank0.actEnergy      1955596020                       # Energy for activate commands per rank (pJ) (Joule)
system.mem_ctrls.dram.rank0.preEnergy      1039423935                       # Energy for precharge commands per rank (pJ) (Joule)
system.mem_ctrls.dram.rank0.readEnergy     2221860900                       # Energy for read commands per rank (pJ) (Joule)
system.mem_ctrls.dram.rank0.writeEnergy     966550860                       # Energy for write commands per rank (pJ) (Joule)
system.mem_ctrls.dram.rank0.refreshEnergy 83252988000.000015                       # Energy for refresh commands per rank (pJ) (Joule)
system.mem_ctrls.dram.rank0.actBackEnergy 138570120750                       # Energy for active background per rank (pJ) (Joule)
system.mem_ctrls.dram.rank0.preBackEnergy 288296316000                       # Energy for precharge background per rank (pJ) (Joule)
system.mem_ctrls.dram.rank0.actPowerDownEnergy            0                       # Energy for active power-down per rank (pJ) (Joule)
system.mem_ctrls.dram.rank0.prePowerDownEnergy            0                       # Energy for precharge power-down per rank (pJ) (Joule)
system.mem_ctrls.dram.rank0.selfRefreshEnergy            0                       # Energy for self refresh per rank (pJ) (Joule)
system.mem_ctrls.dram.rank0.totalEnergy  516302856465                       # Total energy per rank (pJ) (Joule)
system.mem_ctrls.dram.rank0.averagePower   489.547379                       # Core power per rank (mW) (Watt)
system.mem_ctrls.dram.rank0.totalIdleTime            0                       # Total Idle time Per DRAM Rank (Tick)
system.mem_ctrls.dram.rank0.pwrStateTime::IDLE 748131327000                       # Time in different power states (Tick)
system.mem_ctrls.dram.rank0.pwrStateTime::REF  35217000000                       # Time in different power states (Tick)
system.mem_ctrls.dram.rank0.pwrStateTime::SREF            0                       # Time in different power states (Tick)
system.mem_ctrls.dram.rank0.pwrStateTime::PRE_PDN            0                       # Time in different power states (Tick)
system.mem_ctrls.dram.rank0.pwrStateTime::ACT 271305172500                       # Time in different power states (Tick)
system.mem_ctrls.dram.rank0.pwrStateTime::ACT_PDN            0                       # Time in different power states (Tick)
system.mem_ctrls.dram.rank1.actEnergy      2115917580                       # Energy for activate commands per rank (pJ) (Joule)
system.mem_ctrls.dram.rank1.preEnergy      1124636865                       # Energy for precharge commands per rank (pJ) (Joule)
system.mem_ctrls.dram.rank1.readEnergy     2380397460                       # Energy for read commands per rank (pJ) (Joule)
system.mem_ctrls.dram.rank1.writeEnergy    1045294560                       # Energy for write commands per rank (pJ) (Joule)
system.mem_ctrls.dram.rank1.refreshEnergy 83252988000.000015                       # Energy for refresh commands per rank (pJ) (Joule)
system.mem_ctrls.dram.rank1.actBackEnergy 140098497660                       # Energy for active background per rank (pJ) (Joule)
system.mem_ctrls.dram.rank1.preBackEnergy 287009261760                       # Energy for precharge background per rank (pJ) (Joule)
system.mem_ctrls.dram.rank1.actPowerDownEnergy            0                       # Energy for active power-down per rank (pJ) (Joule)
system.mem_ctrls.dram.rank1.prePowerDownEnergy            0                       # Energy for precharge power-down per rank (pJ) (Joule)
system.mem_ctrls.dram.rank1.selfRefreshEnergy            0                       # Energy for self refresh per rank (pJ) (Joule)
system.mem_ctrls.dram.rank1.totalEnergy  517026993885                       # Total energy per rank (pJ) (Joule)
system.mem_ctrls.dram.rank1.averagePower   490.233991                       # Core power per rank (mW) (Watt)
system.mem_ctrls.dram.rank1.totalIdleTime            0                       # Total Idle time Per DRAM Rank (Tick)
system.mem_ctrls.dram.rank1.pwrStateTime::IDLE 744773022250                       # Time in different power states (Tick)
system.mem_ctrls.dram.rank1.pwrStateTime::REF  35217000000                       # Time in different power states (Tick)
system.mem_ctrls.dram.rank1.pwrStateTime::SREF            0                       # Time in different power states (Tick)
system.mem_ctrls.dram.rank1.pwrStateTime::PRE_PDN            0                       # Time in different power states (Tick)
system.mem_ctrls.dram.rank1.pwrStateTime::ACT 274663477250                       # Time in different power states (Tick)
system.mem_ctrls.dram.rank1.pwrStateTime::ACT_PDN            0                       # Time in different power states (Tick)
system.mem_ctrls.power_state.pwrStateResidencyTicks::UNDEFINED 1054653499500                       # Cumulative time (in ticks) in various power states (Tick)
system.membus.transDist::ReadResp              325953                       # Transaction distribution (Count)
system.membus.transDist::WritebackDirty        385430                       # Transaction distribution (Count)
system.membus.transDist::CleanEvict            242779                       # Transaction distribution (Count)
system.membus.transDist::ReadExReq             319399                       # Transaction distribution (Count)
system.membus.transDist::ReadExResp            319399                       # Transaction distribution (Count)
system.membus.transDist::ReadSharedReq         325953                       # Transaction distribution (Count)
system.membus.pktCount_system.l2.mem_side_port::system.mem_ctrls.port      1918913                       # Packet count per connected requestor and responder (Count)
system.membus.pktCount_system.l2.mem_side_port::total      1918913                       # Packet count per connected requestor and responder (Count)
system.membus.pktCount::total                 1918913                       # Packet count per connected requestor and responder (Count)
system.membus.pktSize_system.l2.mem_side_port::system.mem_ctrls.port     65970048                       # Cumulative packet size per connected requestor and responder (Byte)
system.membus.pktSize_system.l2.mem_side_port::total     65970048                       # Cumulative packet size per connected requestor and responder (Byte)
system.membus.pktSize::total                 65970048                       # Cumulative packet size per connected requestor and responder (Byte)
system.membus.snoops                                0                       # Total snoops (Count)
system.membus.snoopTraffic                          0                       # Total snoop traffic (Byte)
system.membus.snoopFanout::samples             645352                       # Request fanout histogram (Count)
system.membus.snoopFanout::mean                     0                       # Request fanout histogram (Count)
system.membus.snoopFanout::stdev                    0                       # Request fanout histogram (Count)
system.membus.snoopFanout::underflows               0      0.00%      0.00% # Request fanout histogram (Count)
system.membus.snoopFanout::0                   645352    100.00%    100.00% # Request fanout histogram (Count)
system.membus.snoopFanout::1                        0      0.00%    100.00% # Request fanout histogram (Count)
system.membus.snoopFanout::overflows                0      0.00%    100.00% # Request fanout histogram (Count)
system.membus.snoopFanout::min_value                0                       # Request fanout histogram (Count)
system.membus.snoopFanout::max_value                0                       # Request fanout histogram (Count)
system.membus.snoopFanout::total               645352                       # Request fanout histogram (Count)
system.membus.power_state.pwrStateResidencyTicks::UNDEFINED 1054653499500                       # Cumulative time (in ticks) in various power states (Tick)
system.membus.reqLayer2.occupancy          2823310000                       # Layer occupancy (ticks) (Tick)
system.membus.reqLayer2.utilization               0.0                       # Layer utilization (Ratio)
system.membus.respLayer1.occupancy         3493046500                       # Layer occupancy (ticks) (Tick)
system.membus.respLayer1.utilization              0.0                       # Layer utilization (Ratio)
system.membus.snoop_filter.totRequests        1273561                       # Total number of requests made to the snoop filter. (Count)
system.membus.snoop_filter.hitSingleRequests       628209                       # Number of requests hitting in the snoop filter with a single holder of the requested data. (Count)
system.membus.snoop_filter.hitMultiRequests            0                       # Number of requests hitting in the snoop filter with multiple (>1) holders of the requested data. (Count)
system.membus.snoop_filter.totSnoops                0                       # Total number of snoops made to the snoop filter. (Count)
system.membus.snoop_filter.hitSingleSnoops            0                       # Number of snoops hitting in the snoop filter with a single holder of the requested data. (Count)
system.membus.snoop_filter.hitMultiSnoops            0                       # Number of snoops hitting in the snoop filter with multiple (>1) holders of the requested data. (Count)
system.tol2bus.transDist::ReadResp            1429723                       # Transaction distribution (Count)
system.tol2bus.transDist::WritebackDirty      1315557                       # Transaction distribution (Count)
system.tol2bus.transDist::WritebackClean           43                       # Transaction distribution (Count)
system.tol2bus.transDist::CleanEvict          1328956                       # Transaction distribution (Count)
system.tol2bus.transDist::ReadExReq            588217                       # Transaction distribution (Count)
system.tol2bus.transDist::ReadExResp           588217                       # Transaction distribution (Count)
system.tol2bus.transDist::ReadCleanReq            994                       # Transaction distribution (Count)
system.tol2bus.transDist::ReadSharedReq       1428729                       # Transaction distribution (Count)
system.tol2bus.pktCount_system.cpu.icache.mem_side_port::system.l2.cpu_side_port         2031                       # Packet count per connected requestor and responder (Count)
system.tol2bus.pktCount_system.cpu.dcache.mem_side_port::system.l2.cpu_side_port      6048790                       # Packet count per connected requestor and responder (Count)
system.tol2bus.pktCount::total                6050821                       # Packet count per connected requestor and responder (Count)
system.tol2bus.pktSize_system.cpu.icache.mem_side_port::system.l2.cpu_side_port        66368                       # Cumulative packet size per connected requestor and responder (Byte)
system.tol2bus.pktSize_system.cpu.dcache.mem_side_port::system.l2.cpu_side_port    188612672                       # Cumulative packet size per connected requestor and responder (Byte)
system.tol2bus.pktSize::total               188679040                       # Cumulative packet size per connected requestor and responder (Byte)
system.tol2bus.snoops                          629615                       # Total snoops (Count)
system.tol2bus.snoopTraffic                  24667520                       # Total snoop traffic (Byte)
system.tol2bus.snoopFanout::samples           2647555                       # Request fanout histogram (Count)
system.tol2bus.snoopFanout::mean             0.001113                       # Request fanout histogram (Count)
system.tol2bus.snoopFanout::stdev            0.033339                       # Request fanout histogram (Count)
system.tol2bus.snoopFanout::underflows              0      0.00%      0.00% # Request fanout histogram (Count)
system.tol2bus.snoopFanout::0                 2644609     99.89%     99.89% # Request fanout histogram (Count)
system.tol2bus.snoopFanout::1                    2946      0.11%    100.00% # Request fanout histogram (Count)
system.tol2bus.snoopFanout::2                       0      0.00%    100.00% # Request fanout histogram (Count)
system.tol2bus.snoopFanout::3                       0      0.00%    100.00% # Request fanout histogram (Count)
system.tol2bus.snoopFanout::4                       0      0.00%    100.00% # Request fanout histogram (Count)
system.tol2bus.snoopFanout::overflows               0      0.00%    100.00% # Request fanout histogram (Count)
system.tol2bus.snoopFanout::min_value               0                       # Request fanout histogram (Count)
system.tol2bus.snoopFanout::max_value               1                       # Request fanout histogram (Count)
system.tol2bus.snoopFanout::total             2647555                       # Request fanout histogram (Count)
system.tol2bus.power_state.pwrStateResidencyTicks::UNDEFINED 1054653499500                       # Cumulative time (in ticks) in various power states (Tick)
system.tol2bus.reqLayer0.occupancy         2946610500                       # Layer occupancy (ticks) (Tick)
system.tol2bus.reqLayer0.utilization              0.0                       # Layer utilization (Ratio)
system.tol2bus.respLayer0.occupancy           1491000                       # Layer occupancy (ticks) (Tick)
system.tol2bus.respLayer0.utilization             0.0                       # Layer utilization (Ratio)
system.tol2bus.respLayer1.occupancy        3025419000                       # Layer occupancy (ticks) (Tick)
system.tol2bus.respLayer1.utilization             0.0                       # Layer utilization (Ratio)
system.tol2bus.snoop_filter.totRequests       4032881                       # Total number of requests made to the snoop filter. (Count)
system.tol2bus.snoop_filter.hitSingleRequests      2014941                       # Number of requests hitting in the snoop filter with a single holder of the requested data. (Count)
system.tol2bus.snoop_filter.hitMultiRequests            1                       # Number of requests hitting in the snoop filter with multiple (>1) holders of the requested data. (Count)
system.tol2bus.snoop_filter.totSnoops            2945                       # Total number of snoops made to the snoop filter. (Count)
system.tol2bus.snoop_filter.hitSingleSnoops         2945                       # Number of snoops hitting in the snoop filter with a single holder of the requested data. (Count)
system.tol2bus.snoop_filter.hitMultiSnoops            0                       # Number of snoops hitting in the snoop filter with multiple (>1) holders of the requested data. (Count)
system.voltage_domain.voltage                       1                       # Voltage in Volts (Volt)
system.workload.inst.arm                            0                       # number of arm instructions executed (Count)
system.workload.inst.quiesce                        0                       # number of quiesce instructions executed (Count)

---------- End Simulation Statistics   ----------
